data/operation/pglib_opf_case14_ieee_mod.m
function mpc = pglib_opf_case14_ieee_mod
mpc.version = '2';
mpc.baseMVA = 100.0;

%% bus data
%	bus_i	type	Pd	Qd	Gs	Bs	area	Vm	Va	baseKV	zone	Vmax	Vmin
mpc.bus = [
1	3	0	0	0	0	1	1	0	1	1	1.05	    0.95;
2	1	21.7	12.7	0	0	1	1	0	1	1	1.05	    0.95;
3	2	94.2	19	0	0	1	1	0	1	1	1.05	    0.95;
4	1	47.8	-3.9	0	0	1	1	0	1	1	1.05	    0.95;
5	1	7.6	1.6	0	0	1	1	0	1	1	1.05	    0.95;
6	1	11.2	7.5	0	0	1	1	0	1	1	1.05	    0.95;
7	1	0	0	0	0	1	1	0	1	1	1.05	    0.95;
8	2	0	0	0	0	1	1	0	1	1	1.05	    0.95;
9	1	29.5	16.6	0	19	1	1	0	1	1	1.05	    0.95;
10	1	9	5.8	0	0	1	1	0	1	1	1.05	    0.95;
11	2	3.5	1.8	0	0	1	1	0	1	1	1.05	    0.95;
12	1	6.1	1.6	0	0	1	1	0	1	1	1.05	    0.95;
13	1	13.5	5.8	0	0	1	1	0	1	1	1.05	    0.95;
14	1	14.9	5	0	0	1	1	0	1	1	1.05	    0.95;
];

%% generator data
%	bus	Pg	Qg	Qmax	Qmin	Vg	mBase	status	Pmax	Pmin
mpc.gen = [
1	300	50	100	-100	1	100	1	350	0.0;
3	0	0	100	-100	1	100	1	100	0.0;
8	50	0	10	-10	1	100	1	50	0.0;
11	30	0	10	-10	1	100	1	30	0.0;
];

%% generator cost data
%	2	startup	shutdown	n	c(n-1)	...	c0
mpc.gencost = [
	2	 0.0	 0.0	 3	   0.200000	   7.920951	   0.000000; 
	2	 0.0	 0.0	 3	   0.200000	  23.269494	   0.000000; 
	2	 0.0	 0.0	 3	   0.000000	   0.000000	   0.000000;
	2	 0.0	 0.0	 3	   0.000000	   0.000000	   0.000000;
];

%% branch data
%	fbus	tbus	r	x	b	rateA	rateB	rateC	ratio	angle	status	angmin	angmax
mpc.branch = [
1	2	0.01938	0.05917	0.0528	472	472	472	0	0	1	-30	30.0;
1	5	0.05403	0.22304	0.0492	200	200	200	0	0	1	-30	30.0;
2	3	0.04699	0.19797	0.0438	200	200	200	0	0	1	-30	30.0;
2	4	0.05811	0.17632	0.034	200	200	200	0	0	1	-30	30.0;
4	7	0.05811	0.17632	0.034	200	200	200	0	0	1	-30	30.0;
4	9	0.05811	0.17632	0.034	200	200	200	0	0	1	-30	30.0;
5	6	0.05811	0.17632	0.034	200	200	200	0	0	1	-30	30.0;
6	11	0.09498	0.1989	0	200	200	200	0	0	1	-30	30.0;
6	12	0.12291	0.25581	0	200	200	200	0	0	1	-30	30.0;
6	13	0.06615	0.13027	0	200	200	200	0	0	1	-30	30.0;
7	8	0.06615	0.13027	0	200	200	200	0	0	1	-30	30.0;
9	10	0.03181	0.0845	0	200	200	200	0	0	1	-30	30.0;
9	14	0.12711	0.27038	0	200	200	200	0	0	1	-30	30.0;
];

% hours
mpc.time_elapsed = 0.25

%% storage data
%   storage_bus ps qs energy  energy_rating charge_rating  discharge_rating  charge_efficiency  discharge_efficiency  thermal_rating  qmin  qmax  r  x  p_loss  q_loss  status
mpc.storage = [
	 13	 0.0	 0.0	 1.00	 200.0	 100.0	 72.0	 0.90	 0.85	 1000.0	 -1000.0	 1000.0	 0.1	 0.01	 0.0	 0.0	 1;
];
